[Format]      =  4.0
[Frequency]   =  0
[Precision]   =  1e-008
[MinAngle]    =  30
[DoSmartMesh] =  1
[Depth]       =  607.20000000000005
[LengthUnits] =  millimeters
[ProblemType] =  planar
[Coordinates] =  cartesian
[ACSolver]    =  0
[PrevType]    =  0
[PrevSoln]    =  ""
[Comment]     =  "Add comments here."
[PointProps]   = 0
[BdryProps]   = 0
[BlockProps]  = 5
  <BeginBlock>
    <BlockName> = "Air"
    <Mu_x> = 1
    <Mu_y> = 1
    <H_c> = 0
    <H_cAngle> = 0
    <J_re> = 0
    <J_im> = 0
    <Sigma> = 0
    <d_lam> = 0
    <Phi_h> = 0
    <Phi_hx> = 0
    <Phi_hy> = 0
    <LamType> = 0
    <LamFill> = 1
    <NStrands> = 0
    <WireD> = 0
    <BHPoints> = 0
  <EndBlock>
  <BeginBlock>
    <BlockName> = "Cast Alnico 9 (LNGT72)"
    <Mu_x> = 1
    <Mu_y> = 1
    <H_c> = 112100
    <H_cAngle> = 0
    <J_re> = 0
    <J_im> = 0
    <Sigma> = 1.8999999999999999
    <d_lam> = 0
    <Phi_h> = 0
    <Phi_hx> = 0
    <Phi_hy> = 0
    <LamType> = 0
    <LamFill> = 1
    <NStrands> = 0
    <WireD> = 0
    <BHPoints> = 13
      0	0
      0.1691	2900
      0.37409999999999999	6700
      0.57830000000000004	11300
      0.7268	16690
      0.80820000000000003	22540
      0.88019999999999998	34470
      0.91810000000000003	46050
      0.95240000000000002	58990
      0.98499999999999999	72980
      1.016	88930
      1.04	101630
      1.0600000000000001	112100
  <EndBlock>
  <BeginBlock>
    <BlockName> = "1020 Steel_SIM"
    <Mu_x> = 760
    <Mu_y> = 760
    <H_c> = 0
    <H_cAngle> = 0
    <J_re> = 0
    <J_im> = 0
    <Sigma> = 5.7999999999999998
    <d_lam> = 1
    <Phi_h> = 20
    <Phi_hx> = 0
    <Phi_hy> = 0
    <LamType> = 0
    <LamFill> = 1
    <NStrands> = 0
    <WireD> = 0
    <BHPoints> = 27
      0	0
      0.16600000000000001	166
      0.20899999999999999	183
      0.26200000000000001	204
      0.32700000000000001	227
      0.40699999999999997	252
      0.505	286
      0.61899999999999999	328
      0.751	390
      0.89300000000000002	475
      1.038	590
      1.173	717
      1.2869999999999999	926
      1.3740000000000001	1188
      1.4379999999999999	1450
      1.591	2661
      1.6499999999999999	3397
      1.712	4563
      1.7749999999999999	6420
      1.835	9364
      1.891	11900
      1.9450000000000001	15590
      2.0529999999999999	27280
      2.1059999999999999	36160
      2.1549999999999998	46260
      2.1960000000000002	56920
      2.2290000000000001	68400
  <EndBlock>
  <BeginBlock>
    <BlockName> = "304 Stainless Steel"
    <Mu_x> = 1
    <Mu_y> = 1
    <H_c> = 0
    <H_cAngle> = 0
    <J_re> = 0
    <J_im> = 0
    <Sigma> = 1.45
    <d_lam> = 0
    <Phi_h> = 0
    <Phi_hx> = 0
    <Phi_hy> = 0
    <LamType> = 0
    <LamFill> = 1
    <NStrands> = 0
    <WireD> = 0
    <BHPoints> = 0
  <EndBlock>
  <BeginBlock>
    <BlockName> = "10 AWG"
    <Mu_x> = 1
    <Mu_y> = 1
    <H_c> = 0
    <H_cAngle> = 0
    <J_re> = 0
    <J_im> = 0
    <Sigma> = 58
    <d_lam> = 0
    <Phi_h> = 0
    <Phi_hx> = 0
    <Phi_hy> = 0
    <LamType> = 3
    <LamFill> = 1
    <NStrands> = 1
    <WireD> = 29.699999999999999
    <BHPoints> = 0
  <EndBlock>
[CircuitProps]  = 0
[NumPoints] = 869
93.61659798076937	578.9639535376034	0	1
0.96268459064165757	570.94819820859527	0	1
-487.93455247138689	64.921790096742441	0	3
-487.15362017851351	82.804746920320198	0	3
-488.71548476426028	47.03883327316467	0	3
-455.85357751574321	45.603783978523147	0	3
-454.29171292999553	81.369697625678626	0	3
-487.934964958992	14.1400993276936	0	3
-488.71560673374597	32.02306883556642	0	3
-487.15432318423808	-3.742870180179195	0	3
-454.29239262692869	-2.3083547446522061	0	3
-455.85367617643601	33.457584271093467	0	3
-483.50945989999889	-36.44838772723115	0	3
-485.84573458711043	-18.701505731050428	0	3
-481.1731852128878	-54.19526972341184	0	3
-448.56133048090362	-49.90210708636485	0	3
-453.23387985512511	-14.40834309400328	0	3
-474.69171806010002	-86.458662135379882	0	3
-478.5658451985185	-68.982932138742527	0	3
-470.8175909216817	-103.93439213201719	0	3
-438.70400792110888	-96.815255853400558	0	3
-446.45226219794449	-61.863795860125649	0	3
-461.54884777899417	-135.51011551147741	0	3
-466.93134292193457	-118.43853837179221	0	3
-456.16635263605423	-152.58169265116271	0	3
-424.79544512423911	-142.6907636567089	0	3
-435.56043541011798	-108.54760937733801	0	3
-444.18087423540339	-183.2294366772544	0	3
-451.03077334478832	-166.69193740465431	0	3
-437.33097512601859	-199.76693594985451	0	3
-406.94149465139782	-187.17949018151731	0	3
-420.64129287016578	-154.10449163631651	0	3
-422.71997819506248	-229.2534527849254	0	3
-430.98514940258781	-213.3758917344899	0	3
-414.45480698753801	-245.1310138353607	0	3
-385.2780358461938	-229.94284935594499	0	3
-401.80837826124178	-198.1877272550733	0	3
-397.32949003528319	-273.23189328185032	0	3
-406.94703039741199	-258.13510828030689	0	3
-387.71194967315478	-288.32867828339351	0	3
-359.9699407108883	-270.65538619545191	0	3
-379.20502143514381	-240.46181619236421	0	3
-368.2026467021567	-314.83005568093881	0	3
-379.0993609295038	-300.62894237783729	0	3
-357.30593247480942	-329.03116898404028	0	3
-331.20981913090679	-309.0072537117876	0	3
-353.0032475855993	-280.60502710558302	0	3
-335.56112106071657	-353.73135284867669	0	3
-347.65407857839608	-340.53399029112012	0	3
-323.46816354303712	-366.9287154062331	0	3
-299.21655299730912	-344.70657103566163	0	3
-323.40246803266672	-318.311845920547	0	3
-299.6533348305868	-389.63972242437239	0	3
-312.85050092996198	-377.54655051020927	0	3
-286.45616873121168	-401.73289433853529	0	3
-264.2336303834345	-377.48164480640258	0	3
-290.62796258218339	-353.29530097807492	0	3
-260.75256794669269	-422.28188003348811	0	3
-274.95350422508039	-411.38493510304198	0	3
-246.55163166830499	-433.17882496393389	0	3
-226.5272924536406	-407.08303692248472	0	3
-254.92916501041449	-385.28914706159088	0	3
-219.15487873394551	-451.40939914674487	0	3
-234.2515074915074	-441.79161353069219	0	3
-204.05824997638359	-461.02718476279779	0	3
-186.38450720728241	-433.28546291609513	0	3
-216.57776472240451	-414.04989168398703	0	3
-175.17685072462609	-476.80060175601449	0	3
-191.05427750092349	-468.53517261027019	0	3
-159.29942394832881	-485.06603090175832	0	3
-144.11078547896099	-455.88950650396481	0	3
-175.86563903155451	-439.35864821247458	0	3
-129.1531832665446	-498.26224547781243	0	3
-145.69057125675749	-491.41207770897898	0	3
-112.6157952763317	-505.1124132466457	0	3
-100.02785581660009	-474.72313726569621	0	3
-133.10263179702449	-461.02280172802682	0	3
-81.434144258907367	-515.63099424452105	0	3
-98.505633954882356	-510.24822176556353	0	3
-64.362654562932534	-521.01376672347885	0	3
-54.471215932931038	-489.64301989913429	0	3
-88.614195324880029	-478.87747494121629	0	3
-32.382904402105879	-528.77466139048886	0	3
-49.858571459209088	-524.90025035017891	0	3
-14.90723734500253	-532.64907243079892	0	3
-7.7875793653197709	-500.53560508856782	0	3
-42.738913479525507	-492.78678300794462	0	3
17.627226750600919	-537.59321567237146	0	3
-0.1196172892298932	-535.25665267815918	0	3
35.374070790431688	-539.92977866658396	0	3
39.667763223603593	-507.31799368358242	0	3
4.1740751439425301	-502.64486769515429	0	3
68.215641904198336	-542.01954256729539	0	3
50.332685080620543	-541.23861027442194	0	3
86.098598727776107	-542.80047486016883	0	3
87.533648022418177	-509.93856761165119	0	3
51.767734375262727	-508.37670302590118	0	3
118.9973326732471	-542.01995505490061	0	3
101.1143631653743	-542.80059682965475	0	3
136.88030218111999	-541.2393132801468	0	3
135.44578674559349	-508.37738272283678	0	3
99.679847729847722	-509.93866627234178	0	3
169.58581972817171	-537.59444999590789	0	3
151.838937731991	-539.93072468301932	0	3
187.33270172435249	-535.25817530879647	0	3
183.03953908730591	-502.64632057681132	0	3
147.5457750949441	-507.31886995103099	0	3
219.59609413632049	-528.77670815600879	0	3
202.1203641396832	-532.65083529442722	0	3
237.07182413295789	-524.90258101759025	0	3
229.95268785434149	-492.7889980170163	0	3
195.0012278610661	-500.53725229385037	0	3
268.64754751241833	-515.63383787490318	0	3
251.57597037273311	-521.01633301784318	0	3
285.71912465210357	-510.25134273196278	0	3
275.82819565764981	-478.88043522014641	0	3
241.68504137827841	-489.64542550602391	0	3
316.36686867819537	-498.26586433131189	0	3
299.82936940559517	-505.11576344069681	0	3
332.90436795079552	-491.41596522192719	0	3
320.31692218245809	-461.02648474730489	0	3
287.24192363725678	-474.72628296607178	0	3
362.39088478586621	-476.80496829097171	0	3
346.51332373543079	-485.07013949849642	0	3
378.26844583630151	-468.53979708344679	0	3
363.08028135688539	-439.36302594210082	0	3
331.32515925601331	-455.89336835714789	0	3
406.36932528279078	-451.41448013119219	0	3
391.2725402812477	-461.03202049332089	0	3
421.46611028433421	-441.79693976906327	0	3
403.79281819639192	-414.0549308067952	0	3
373.59924819330388	-433.29001153105031	0	3
447.96748768187928	-422.28763679806548	0	3
433.76637437877781	-433.1843510254127	0	3
462.16860098498103	-411.3909225707182	0	3
442.1446857127271	-385.2948092268137	0	3
413.74245910652252	-407.08823768150609	0	3
486.8687848496175	-389.64611115662569	0	3
473.67142229206098	-401.7390686743052	0	3
500.0661474071739	-377.5531536389459	0	3
477.84400303660112	-353.30154309321603	0	3
451.44927792148638	-377.48745812857368	0	3
522.77715442531326	-353.73832492649552	0	3
510.68398251115019	-366.93549102587082	0	3
534.87032633947638	-340.5411588271204	0	3
510.61907680734248	-318.31862047934158	0	3
486.43273297901447	-344.7129526780904	0	3
555.4193120344288	-314.83755804260119	0	3
544.52236710398313	-329.038494320989	0	3
566.31625696487504	-300.63662176421349	0	3
540.22046892342405	-280.61228254954761	0	3
518.42657906253021	-309.01415510632148	0	3
584.54683114768613	-273.23986882985417	0	3
574.92904553163305	-288.33649758741609	0	3
594.1646167637391	-258.1432400722922	0	3
566.42289491703445	-240.4694973031894	0	3
547.18732368492681	-270.66275481831218	0	3
609.93803375695575	-229.26184082053439	0	3
601.67260461121168	-245.13926759683179	0	3
618.20346290269981	-213.3844140442371	0	3
589.02693850490436	-198.19577557486789	0	3
572.49608021341407	-229.9506291274615	0	3
631.39967747875357	-183.23817336245301	0	3
624.54950970991979	-199.77556135266579	0	3
638.24984524758713	-166.7007853722402	0	3
607.86056926663537	-154.1128459125074	0	3
594.16023372896643	-187.1876218929321	0	3
648.76842624546236	-135.51913435481589	0	3
643.38565376650479	-152.59062405079081	0	3
654.15119872442006	-118.447644658841	0	3
622.78045190007333	-108.5562060288385	0	3
612.01490694215613	-142.69918542078759	0	3
661.91209339143006	-86.46789449801463	0	3
658.03768235111988	-103.9435615551179	0	3
665.78650443174001	-68.992227440911407	0	3
633.67303708950681	-61.87256946122762	0	3
625.92421500888474	-96.823903575433718	0	3
670.73064767331255	-36.457763345307839	0	3
668.39408467910039	-54.204607385138623	0	3
673.06721066752505	-18.710919305477081	0	3
640.45542568452106	-14.41722687230447	0	3
635.78229969609436	-49.910914951965751	0	3
675.15697456823636	14.13065180828956	0	3
674.37604227536303	-3.7523050152882642	0	3
675.93790686110992	32.013608631867321	0	3
643.07599961259018	33.448657926509867	0	3
641.51413502684159	-2.3172557206455831	0	3
675.15738705584158	64.912342577338407	0	3
675.93802883059584	47.029373069465557	0	3
674.37674528108778	82.795312085211137	0	3
641.51481472377543	81.360796649685028	0	3
643.07609827328213	45.59485763393932	0	3
670.7318819968491	115.50082963226291	0	3
673.06815668396041	97.753947636082245	0	3
668.3956073097379	133.24771162844371	0	3
635.78375257774996	128.9545489913971	0	3
640.45630195197168	93.460784999035667	0	3
661.91414015694966	165.51110404041179	0	3
665.78826729536809	148.0353740437744	0	3
658.04001301853157	182.98683403704911	0	3
625.92643001795545	175.86769775843271	0	3
633.67468429479152	140.9162377651578	0	3
648.77126987584415	214.56255741650921	0	3
654.15376501878427	197.49098027682399	0	3
643.38877473290393	231.6341345561946	0	3
612.01786722108545	221.74320556174061	0	3
622.78285750696534	187.60005128236989	0	3
631.40329633225326	262.28187858228642	0	3
638.25319544163824	245.74437930968631	0	3
624.55339722286806	278.81937785488651	0	3
594.16391674824422	266.2319320865488	0	3
607.86371496701361	233.15693354134859	0	3
609.94240029191315	308.3058946899572	0	3
618.20757149943802	292.42833363952201	0	3
601.67722908438816	324.18345574039239	0	3
572.50045794304015	308.99529126097599	0	3
589.03080035808955	277.24016916010498	0	3
584.55191213213379	352.28433518688189	0	3
594.16945249426226	337.18755018533841	0	3
574.93437177000465	367.38112018842531	0	3
547.19236280773475	349.70782810048229	0	3
566.42744353199225	319.51425809739573	0	3
555.42506879900634	393.88249758597078	0	3
566.32178302635384	379.68138428286932	0	3
544.52835457165941	408.08361088907242	0	3
518.43224122775359	388.0596956168182	0	3
540.22566968244757	359.6574690106147	0	3
522.78354315756701	432.78379475370838	0	3
534.87650067524692	419.58643219615197	0	3
510.69058563988727	445.98115731126489	0	3
486.43897509415649	423.75901294069178	0	3
510.62489012951579	397.36428782557903	0	3
486.8757569274369	468.69216432940442	0	3
500.07292302681202	456.5989924152413	0	3
473.6785908280616	480.78533624356737	0	3
451.45605248028198	456.53408671143342	0	3
477.85038467903212	432.34774288310712	0	3
447.97499004354307	501.33432193851979	0	3
462.17592632193049	490.4373770080739	0	3
433.7740537651552	512.23126686896592	0	3
413.74971455048848	486.13547882751487	0	3
442.15158710726399	464.34158896662308	0	3
406.37730083079549	530.46184105177736	0	3
421.47392958835741	520.8440554357245	0	3
391.28067207323357	540.07962666783044	0	3
373.60692930413018	512.33790482112568	0	3
403.80018681925378	493.10233358901962	0	3
362.3992728214763	555.85304366104674	0	3
378.27669959777359	547.58761451530256	0	3
346.52184604517879	564.11847280679046	0	3
331.3332075758089	534.94194840899524	0	3
363.08806112840392	518.41109011750723	0	3
316.37560536339493	577.31468738284457	0	3
332.91299335360759	570.46451961401124	0	3
299.83821737318198	584.16485515167813	0	3
287.2502779134486	553.77557917072625	0	3
320.3250538938745	540.07524363305981	0	3
268.65656635575721	594.68343614955381	0	3
285.7280560517321	589.30066367059624	0	3
251.58507665978229	600.0662086285115	0	3
241.69363802977969	568.69546180416523	0	3
275.83661742172922	557.92991684624974	0	3
219.6053264989564	607.82710329552151	0	3
237.0809935560597	603.95269225521145	0	3
202.12965944185319	611.70151433583146	0	3
195.0100014621691	579.58804699359814	0	3
229.96133557637569	571.83922491297824	0	3
169.59519534624889	616.64565757740411	0	3
187.3420393860797	614.30909458319184	0	3
151.84835130641821	618.98222057161661	0	3
147.55465887324539	586.3704355886133	0	3
183.048346952907	581.69730960018853	0	3
119.0067801926521	621.07198447232804	0	3
136.8897370162299	620.2910521794546	0	3
101.1238233690743	621.85291676520148	0	3
99.688774074431535	588.99100951668197	0	3
135.45468772158711	587.42914493093588	0	3
68.225089423602753	621.07239695993326	0	3
86.108058931475554	621.8530387346874	0	3
50.342119915729988	620.29175518517934	0	3
51.776635351255827	587.42982462786767	0	3
87.54257436700145	588.99110817737585	0	3
17.636602368678119	616.64689190094055	0	3
35.38348436485893	618.98316658805186	0	3
-0.1102796275025639	614.31061721382935	0	3
4.1828830095435441	581.69876248184289	0	3
39.676647001904882	586.37131185606574	0	3
-32.373672039470591	607.82915006104145	0	3
-14.89794204283328	611.70327719945976	0	3
-49.849402036107932	603.95502292262313	0	3
-42.730265757492077	571.84143992204838	0	3
-7.7788057642173953	579.58969419888501	0	3
-81.425125415568175	594.68627977993583	0	3
-64.353548275882872	600.06877492287583	0	3
-98.496702555253506	589.30378463699537	0	3
-88.605773560800174	557.93287712517815	0	3
-54.462619281429632	568.69786741105884	0	3
-129.14444658134511	577.31830623634494	0	3
-112.60694730874501	584.16820534572958	0	3
-145.68194585394531	570.46840712696019	0	3
-133.0945000856085	540.07892665233715	0	3
-100.0195015404084	553.77872487110733	0	3
-175.168462689016	555.85741019600437	0	3
-159.29090163858061	564.12258140352924	0	3
-191.04602373945119	547.59223898847961	0	3
-175.85785926003581	518.41546784713341	0	3
-144.1027371591652	534.94581026218304	0	3
-219.14690318594089	530.46692203622513	0	3
-204.05011818439741	540.08446239835371	0	3
-234.2436881874842	520.84938167409632	0	3
-216.57039609954259	493.10737271182808	0	3
-186.37682609645589	512.34245343608563	0	3
-260.74506558502969	501.34007870309819	0	3
-246.5439522819282	512.23679293044518	0	3
-274.94617888813133	490.44336447575068	0	3
-254.92226361587851	464.34725113184669	0	3
-226.52003700967549	486.14067958654061	0	3
-299.6463627527674	468.69855306165869	0	3
-286.44900019521089	480.79151057933819	0	3
-312.84372531032392	456.60559554397861	0	3
-290.62158093975262	432.35398499824959	0	3
-264.22685582463919	456.5399000336086	0	3
-335.5547323284635	432.79076683152829	0	3
-323.46156041430038	445.98793293090353	0	3
-347.64790424262628	419.59360073215299	0	3
-323.39665471049432	397.3710623843748	0	3
-299.21031088216762	423.76539458312459	0	3
-368.1968899375791	393.88999994763412	0	3
-357.2999450071332	408.09093622602188	0	3
-379.09383486802523	379.68906366924602	0	3
-352.99804682657623	359.66472445458078	0	3
-331.20415696568369	388.06659701135573	0	3
-397.3244090508361	352.29231073488711	0	3
-387.70662343478318	367.38893949244903	0	3
-406.94219466688901	337.19568197732519	0	3
-379.2004728201868	319.52193920822282	0	3
-359.96490158808029	349.71519672334642	0	3
-422.71561166010559	308.31428272556769	0	3
-414.4501825143617	324.1917095018652	0	3
-430.9810408058496	292.4368559492703	0	3
-401.8045164080566	277.24821747990183	0	3
-385.2736581165675	309.00307103249582	0	3
-444.17725538190371	262.29061526748649	0	3
-437.3270876130702	278.82800325769921	0	3
-451.02742315073698	245.7532272772736	0	3
-420.6381471697876	233.16528781754079	0	3
-406.9378116321198	266.24006379796617	0	3
-461.54600414861233	214.57157625984931	0	3
-456.16323166965452	231.6430659558242	0	3
-466.92877662757002	197.50008656387439	0	3
-435.55802980322608	187.60864793387191	0	3
-424.79248484530979	221.7516273258214	0	3
-474.68967129458002	165.52033640304791	0	3
-470.81526025427007	182.9960034601512	0	3
-478.56408233489032	148.04466934594461	0	3
-446.45061499265961	140.92501136626089	0	3
-438.70179291203817	175.87634548046711	0	3
-483.50822557646302	115.5102052503412	0	3
-481.17166258225058	133.25704929017189	0	3
-485.84478857067529	97.763361210510382	0	3
-453.23300358767409	93.469668777337446	0	3
-448.55987759924813	128.96335685699879	0	3
-451.47105935699773	78.865367990419188	0	3
-452.9696311578561	78.93080924401194	0	3
-450.02029769442191	95.446098473627742	0	3
-451.50746339608361	95.641899841857835	0	3
-452.825489332416	31.20862052336248	0	3
-454.32406219620418	31.143203614863548	0	3
-452.82535413652602	47.852698531474658	0	3
-454.32392593738439	47.918139785067417	0	3
-450.02120607043531	-16.384824982124009	0	3
-451.50837495279688	-16.58060219054115	0	3
-451.4716983701536	0.1959290672809573	0	3
-452.97027123394179	0.1305121587820324	0	3
-443.07955185995189	-63.552753668035237	0	3
-444.54399850771478	-63.877401193601003	0	3
-445.96963253304619	-47.161513127386463	0	3
-447.45680141540771	-47.357290335803583	0	3
-432.05335688099302	-109.9361891162975	0	3
-433.48393597091052	-110.3872361953149	0	3
-436.3610306684626	-93.859209322220977	0	3
-437.8254773162256	-94.183856847786714	0	3
-417.0265371351469	-155.18212537606539	0	3
-418.41236109653801	-155.75613926791331	0	3
-422.71902003842479	-139.5417618523397	0	3
-424.14959912834257	-139.99280893135699	0	3
-398.11345579412142	-198.94621355215889	0	3
-399.44397766985628	-199.63882566452131	0	3
-405.14742458109851	-183.8614989091094	0	3
-406.5332485424895	-184.43551280095721	0	3
-375.45805282695238	-240.89538250807891	0	3
-376.72314654216552	-241.7013216445701	0	3
-383.7799747479333	-226.48112053253891	0	3
-385.11049662366821	-227.17373264490129	0	3
-349.23274952992648	-280.71037373847008	0	3
-350.42278695756067	-281.623506215622	0	3
-358.77928973417858	-267.07626566764282	0	3
-360.04438344939177	-267.88220480413401	0	3
-319.63713629640512	-318.08817111912032	0	3
-320.7430605330718	-319.10154744741737	0	3
-330.33563984861547	-305.33798074792418	0	3
-331.52567727624972	-306.25111322507621	0	3
-286.89645361341491	-352.7443070426317	0	3
-287.90984790789781	-353.85021481632231	0	3
-298.6654984416183	-340.97507101856718	0	3
-299.77142267828509	-341.98844734686429	0	3
-251.2598778455386	-384.41502738867911	0	3
-252.17302965535259	-385.60504998184001	0	3
-264.0098944122488	-373.71631670434812	0	3
-265.02328870673182	-374.82222447803872	0	3
-212.99862485232239	-412.85929885212528	0	3
-213.80458454081841	-414.12437947426741	0	3
-226.63257783279619	-403.31253715589389	0	3
-227.5457296426101	-404.5025597490548	0	3
-172.40388587182071	-437.8606433520132	0	3
-173.09651959911781	-439.19115397572517	0	3
-186.81801265147081	-429.53848726488189	0	3
-187.62397233996691	-430.80356788702392	0	3
-129.78461137944879	-459.22878556047368	0	3
-130.3586477846583	-460.61460019652498	0	3
-144.86921174999429	-452.19457171532082	0	3
-145.56184547729131	-453.52508233903291	0	3
-85.465159788315205	-476.80110101286363	0	3
-85.916230107780976	-478.23167277509611	0	3
-101.10543083260551	-471.10836402442521	0	3
-101.6794672378151	-472.49417866047662	0	3
-39.782828885845021	-490.44385377813569	0	3
-40.107500202072167	-491.90829515163591	0	3
-55.859738697379328	-486.1359188122625	0	3
-56.310809016845099	-487.56649057449488	0	3
6.9147112060484801	-500.05321427002718	0	3
6.7189098378183578	-501.54037997168899	0	3
-9.4764823815604302	-497.16286731301182	0	3
-9.8011536977875835	-498.62730868651198	0	3
54.27206401052031	-505.55604945290452	0	3
54.20662275692748	-507.054621253763	0	3
37.69133352731177	-504.10528779032882	0	3
37.495532159081591	-505.59245349199051	0	3
101.9288114775772	-506.9104794283229	0	3
101.9942283860761	-508.40905229211108	0	3
85.284733469465081	-506.91034423243298	0	3
85.219292215872258	-508.4089160332914	0	3
149.52225698306361	-504.10619616634222	0	3
149.71803419148071	-505.59336504870367	0	3
132.9415029336586	-505.55668846606039	0	3
133.00691984215749	-507.05526132984858	0	3
196.69018566897481	-497.16454195585879	0	3
197.0148331945405	-498.62898860362168	0	3
180.29894512832601	-500.0546226289531	0	3
180.49472233674311	-501.54179151131461	0	3
243.07362111723731	-486.1383469768997	0	3
243.52466819625451	-487.5689260668176	0	3
226.9966413231607	-490.44602076436951	0	3
227.3212888487264	-491.91046741213239	0	3
288.3195573770052	-471.11152723105369	0	3
288.89357126885301	-472.4973511924448	0	3
272.67919385327951	-476.80401013433158	0	3
273.13024093229672	-478.23458922424948	0	3
332.08364555309862	-452.19844589002821	0	3
332.77625766546089	-453.52896776576313	0	3
316.99893091004901	-459.23241467700529	0	3
317.57294480189682	-460.61823863839641	0	3
374.03281450901852	-429.54304292285917	0	3
374.8387536455096	-430.80813663807243	0	3
359.61855253347852	-437.86496484384008	0	3
360.31116464584079	-439.195486719575	0	3
413.84780573940969	-403.31773962583333	0	3
414.76093821656161	-404.50777705346758	0	3
400.21369766858231	-412.86427983008548	0	3
401.01963680507362	-414.12937354529862	0	3
451.22560312005982	-373.72212639231191	0	3
452.23897944835699	-374.82805062897881	0	3
438.47541274886379	-384.42062994452232	0	3
439.38854522601571	-385.61066737215668	0	3
485.88173904357149	-340.9814437093217	0	3
486.98764681726209	-341.9948380038046	0	3
474.1125030195069	-352.75048853752497	0	3
475.12587934780402	-353.85641277419182	0	3
517.55245938961855	-305.34486794144573	0	3
518.74248198277951	-306.25801975125972	0	3
506.8537487052875	-318.09488450815581	0	3
507.95965647897822	-319.10827880263878	0	3
545.99673085306506	-267.08361494822901	0	3
547.2618114752072	-267.88957463672517	0	3
536.44996915683373	-280.71756792870281	0	3
537.63999174999469	-281.6307197385168	0	3
570.99807535295292	-226.48887596772741	0	3
572.32858597666495	-227.18150969502449	0	3
562.67591926582168	-240.90300274737751	0	3
563.9409998879637	-241.7089624358737	0	3
592.36621756141335	-183.86960147535561	0	3
593.7520321974647	-184.44363788056509	0	3
585.3320037162606	-198.95420184590111	0	3
586.6625143399724	-199.64683557319819	0	3
609.93853301380318	-139.55014988422201	0	3
611.36910477603567	-140.00122020368781	0	3
604.24579602536494	-155.1904209285124	0	3
605.63161066141618	-155.76445733372199	0	3
623.5812857790753	-93.867818981751839	0	3
625.04572715257552	-94.192490297979063	0	3
619.27335081320211	-109.9447287932862	0	3
620.70392257543472	-110.395799112752	0	3
633.19064627096679	-47.17027888985838	0	3
634.67781197262866	-47.36608025808858	0	3
630.30029931395143	-63.561472477467312	0	3
631.76474068745165	-63.886143793694529	0	3
638.69348145384413	0.18707391461344261	0	3
640.19205325470261	0.121632661020584	0	3
637.24271979126843	-16.393656568595119	0	3
638.72988549293007	-16.589457936825319	0	3
640.0479114292624	47.843821381670168	0	3
641.54648429305075	47.909238290168972	0	3
640.04777623337259	31.19974337355799	0	3
641.54634803423096	31.13430211996512	0	3
637.24362816728194	95.437266887156994	0	3
638.73079704964334	95.633044095574007	0	3
638.69412046700006	78.856512837752049	0	3
640.19269333078819	78.921929746250825	0	3
630.30197395679841	142.60519557306819	0	3
631.7664206045614	142.9298430986338	0	3
633.19205462989271	126.21395503241941	0	3
634.67922351225423	126.40973224083641	0	3
619.27577897783942	188.98863102133041	0	3
620.70635806775715	189.43967810034761	0	3
623.58345276530906	172.9116512272538	0	3
625.04789941307206	173.23629875281949	0	3
604.24895923199335	234.23456728109841	0	3
605.63478319338446	234.80858117294611	0	3
609.94144213527125	218.5942037573727	0	3
611.37202122518909	219.04525083638981	0	3
585.33587789096782	277.99865545719172	0	3
586.66639976670263	278.69126756955399	0	3
592.36984667794479	262.91394081414211	0	3
593.75567063933613	263.48795470598992	0	3
562.68047492379878	319.94782441311168	0	3
563.94556863901187	320.75376354960281	0	3
571.0023968447797	305.53356243757162	0	3
572.33291872051473	306.22617454993389	0	3
536.45517162677288	359.7628156435029	0	3
537.64520905440736	360.67594812065471	0	3
546.00171183102509	346.12870757267552	0	3
547.2668055462384	346.9346467091666	0	3
506.8595583932514	397.14061302415303	0	3
507.96548262991843	398.15398935245008	0	3
517.55806194546199	384.390422652957	0	3
518.74809937309624	385.3035551301088	0	3
474.11887571026159	431.79674894766418	0	3
475.13227000474461	432.90265672135467	0	3
485.88792053846498	420.02751292359972	0	3
486.99384477513189	421.04088925189677	0	3
438.48229994238528	463.46746929371159	0	3
439.39545175219939	464.65749188687272	0	3
451.2323165090956	452.7687586093806	0	3
452.2457108035785	453.8746663830712	0	3
400.22104694916902	491.91174075715799	0	3
401.02700663766518	493.17682137930001	0	3
413.85499992964282	482.36497906092637	0	3
414.76815173945681	483.55500165408739	0	3
359.6263079686675	516.91308525704585	0	3
360.3189416959645	518.24359588075777	0	3
374.04043474831741	508.59092916991449	0	3
374.84639443681368	509.8560097920564	0	3
317.00703347629519	538.2812274655065	0	3
317.5810698815049	539.66704210155785	0	3
332.09163384684069	531.24701362035364	0	3
332.78426757413791	532.57752424406567	0	3
272.68758188516159	555.85354291789622	0	3
273.13865220462748	557.28411468012871	0	3
288.32785292945198	550.16080592945787	0	3
288.90188933466158	551.54662056550933	0	3
227.0052509826919	569.49629568316823	0	3
227.3299222989192	570.96073705666845	0	3
243.0821607942263	565.18836071729515	0	3
243.5332311136921	566.61893247952753	0	3
180.30771089079789	579.10565617505995	0	3
180.50351225902821	580.59282187672193	0	3
196.69890447840689	576.21530921804458	0	3
197.0235757946341	577.67975059154458	0	3
132.95035808632599	584.60849135793728	0	3
133.01579933991891	586.10706315879565	0	3
149.5310885695346	583.15772969536147	0	3
149.72688993776481	584.64489539702333	0	3
85.293610619269316	585.96292133335567	0	3
85.228193710770526	587.46149419714379	0	3
101.9376886273815	585.96278613746563	0	3
102.0031298809744	587.46135793832411	0	3
37.700165113782433	583.15863807137498	0	3
37.504387905365448	584.6458069537365	0	3
54.280919163187413	584.60913037109322	0	3
54.215502254688623	586.10770323488146	0	3
-9.4677635721282911	576.21698386089145	0	3
-9.7924110976939005	577.68143050865444	0	3
6.9234769685205029	579.10706453398575	0	3
6.727699760103504	580.59423341634727	0	3
-55.851199020390453	565.19078888193269	0	3
-56.302246099407647	566.62136797185042	0	3
-39.774219226313882	569.49846266940233	0	3
-40.098866751879477	570.96290931716533	0	3
-101.0971352801588	550.16396913608617	0	3
-101.67114917200659	551.54979309747762	0	3
-85.456771756433184	555.8564520393644	0	3
-85.907818835450314	557.28703112928213	0	3
-144.86122345625211	531.25088779506075	0	3
-145.55383556861449	532.58140967079567	0	3
-129.77650881320261	538.28485658203795	0	3
-130.35052270505039	539.67068054342894	0	3
-186.81039241217209	508.59548482789199	0	3
-187.6163315486632	509.86057854310519	0	3
-172.39613043663209	516.91740674887296	0	3
-173.0887425489943	518.24792862460765	0	3
-226.62538364256341	482.37018153086598	0	3
-227.53851611971521	483.56021895850017	0	3
-212.991275571736	491.91672173511807	0	3
-213.79721470822719	493.1818154503315	0	3